/*--------------------------------*- C++ -*----------------------------------*\
| =========                 |                                                 |
| \\      /  F ield         | OpenFOAM: The Open Source CFD Toolbox           |
|  \\    /   O peration     | Version:  2306                                  |
|   \\  /    A nd           | Website:  www.openfoam.com                      |
|    \\/     M anipulation  |                                                 |
\*---------------------------------------------------------------------------*/
FoamFile
{
    version     2.0;
    format      ascii;
    arch        "LSB;label=32;scalar=64";
    class       polyBoundaryMesh;
    location    "constant/polyMesh";
    object      boundary;
}
// * * * * * * * * * * * * * * * * * * * * * * * * * * * * * * * * * * * * * //

5
(
    leftWall
    {
        type            wall;
        inGroups        1(wall);
        nFaces          100;
        startFace       53232;
    }
    rightWall
    {
        type            wall;
        inGroups        1(wall);
        nFaces          100;
        startFace       53332;
    }
    lowerWall
    {
        type            wall;
        inGroups        1(wall);
        nFaces          268;
        startFace       53432;
    }
    upperWall
    {
        type            wall;
        inGroups        1(wall);
        nFaces          268;
        startFace       53700;
    }
    frontAndBack
    {
        type            empty;
        inGroups        1(empty);
        nFaces          53600;
        startFace       53968;
    }
)

// ************************************************************************* //
